Version 4
SHEET 1 2228 832
WIRE -80 -160 -128 -160
WIRE 128 -160 64 -160
WIRE 240 -160 208 -160
WIRE 288 -160 240 -160
WIRE 368 -160 288 -160
WIRE 240 -144 240 -160
WIRE 368 -144 368 -160
WIRE -80 -128 -192 -128
WIRE 80 -112 64 -112
WIRE 80 -80 64 -80
WIRE -80 -64 -112 -64
WIRE 112 -48 64 -48
WIRE -80 -32 -112 -32
WIRE 112 -16 64 -16
WIRE -80 16 -112 16
WIRE 112 16 64 16
WIRE -80 176 -128 176
WIRE 128 176 64 176
WIRE -80 352 -128 352
FLAG -512 -48 0
FLAG -512 -128 IN
FLAG -128 -160 IN
FLAG 240 -64 0
FLAG 80 -112 A
FLAG 80 -80 B
FLAG 112 -48 48VLS
FLAG 112 -16 ISNS
FLAG 288 -160 vbus
FLAG 368 -64 0
FLAG -192 -128 ctl
FLAG -112 -64 AI
FLAG -112 -32 BI
FLAG -272 256 AI
FLAG 400 240 0
FLAG -352 256 BI
FLAG 112 16 ictl
FLAG -336 144 0
FLAG -336 64 EN
FLAG -112 16 EN
FLAG 208 176 vbus
FLAG 400 160 48VLS
FLAG -128 176 IN
FLAG -128 352 EN
SYMBOL voltage -512 -144 R0
WINDOW 123 0 0 Left 0
WINDOW 39 0 0 Left 0
SYMATTR InstName V2
SYMATTR Value 500
SYMBOL res 224 -160 R0
WINDOW 3 30 141 Left 2
SYMATTR Value {RLoad}
SYMATTR InstName R1
SYMBOL PSU48x 0 -112 R0
SYMATTR InstName X1
SYMATTR Value vsetpt=52
SYMBOL res 224 -176 R90
WINDOW 0 0 56 VBottom 2
WINDOW 3 32 56 VTop 2
SYMATTR InstName R3
SYMATTR Value 3m
SYMBOL voltage -256 256 R90
WINDOW 0 -32 56 VBottom 2
WINDOW 3 45 36 VTop 2
WINDOW 123 44 65 VTop 2
WINDOW 39 0 0 Left 0
SYMATTR InstName V1
SYMATTR Value ""
SYMATTR Value2 AC 1
SYMBOL voltage 400 144 R0
WINDOW 123 0 0 Left 0
WINDOW 39 0 0 Left 0
SYMATTR InstName V3
SYMATTR Value 3
SYMBOL voltage -336 48 R0
WINDOW 123 0 0 Left 0
WINDOW 39 0 0 Left 0
SYMATTR InstName V4
SYMATTR Value 1
SYMBOL PSU48x 0 224 R0
SYMATTR InstName X2
SYMATTR Value vsetpt=52
SYMBOL res 224 160 R90
WINDOW 0 0 56 VBottom 2
WINDOW 3 32 56 VTop 2
SYMATTR InstName R2
SYMATTR Value 3m
SYMBOL current 368 -144 R0
WINDOW 123 0 0 Left 0
WINDOW 39 0 0 Left 0
SYMATTR InstName I1
SYMATTR Value 100
TEXT 552 80 Left 2 !.param ILoad=50
TEXT 552 120 Left 2 !*.step param Iload list 50 100 101 101.5 102 102.5 103
TEXT 552 160 Left 2 !*.op
TEXT 592 -88 Left 2 ;hoangp@
TEXT 584 -136 Left 5 ;AWS proprietary
TEXT 552 40 Left 2 !.param RLoad=1k
TEXT 552 232 Left 2 !*.step param RLoad list 1 0.75 0.5
TEXT 568 200 Left 2 !*.tran 1
TEXT 552 8 Left 2 !.param pout=2k
TEXT 560 264 Left 2 !.ac oct 10 20 20k
