Version 4
SHEET 1 2228 832
WIRE -64 -160 -112 -160
WIRE 240 -160 80 -160
WIRE 288 -160 240 -160
WIRE 368 -160 288 -160
WIRE 240 -144 240 -160
WIRE 368 -144 368 -160
WIRE -64 -128 -176 -128
WIRE 112 -48 80 -48
WIRE 112 -16 80 -16
WIRE -96 16 -112 16
WIRE -64 16 -96 16
FLAG -512 -48 0
FLAG -512 -128 IN
FLAG -112 -160 IN
FLAG 240 -64 0
FLAG 80 -112 A
FLAG 80 -80 B
FLAG 112 -48 48VLS
FLAG 112 -16 ISNS
FLAG 288 -160 vbus
FLAG 368 -64 0
FLAG -176 -128 ctl
FLAG 160 160 A
FLAG 160 240 B
FLAG -512 128 0
FLAG -512 48 EN
FLAG -96 16 EN
SYMBOL voltage -512 -144 R0
WINDOW 123 0 0 Left 0
WINDOW 39 0 0 Left 0
SYMATTR InstName V2
SYMATTR Value 500
SYMBOL res 224 -160 R0
WINDOW 3 -92 20 Left 2
SYMATTR Value {RLoad}
SYMATTR InstName R1
SYMBOL PSU48x 16 -112 R0
SYMATTR InstName X1
SYMATTR Value vsetpt=52
SYMBOL current 368 -144 R0
SYMATTR InstName I1
SYMATTR Value {Iload}
SYMBOL voltage 160 144 R0
WINDOW 123 24 124 Left 2
WINDOW 39 0 0 Left 0
SYMATTR Value2 AC 1
SYMATTR InstName V3
SYMATTR Value ""
SYMBOL voltage -512 32 R0
WINDOW 123 0 0 Left 0
WINDOW 39 0 0 Left 0
SYMATTR InstName V1
SYMATTR Value 1
TEXT 328 112 Left 2 !.param ILoad=0
TEXT 328 152 Left 2 !*.step param Iload list 20 50 100
TEXT 328 192 Left 2 !*.op
TEXT 528 -96 Left 2 ;phamhuuhuyhoang0@
TEXT 328 72 Left 2 !.param RLoad=1k
TEXT 328 264 Left 2 !*.step param RLoad list 2 1 0.5
TEXT 344 232 Left 2 !*.tran 1
TEXT 328 40 Left 2 !.param pout=2k
TEXT 360 296 Left 2 !.ac oct 10 100 20k
