Version 4
SHEET 1 1740 680
WIRE -976 -688 -1056 -688
WIRE -848 -688 -976 -688
WIRE -720 -688 -752 -688
WIRE -704 -688 -720 -688
WIRE -672 -688 -704 -688
WIRE -544 -688 -576 -688
WIRE -528 -688 -544 -688
WIRE -480 -688 -528 -688
WIRE -352 -688 -384 -688
WIRE -336 -688 -352 -688
WIRE -304 -688 -336 -688
WIRE -96 -688 -208 -688
WIRE 224 -688 -96 -688
WIRE 448 -688 224 -688
WIRE 544 -688 448 -688
WIRE 784 -688 544 -688
WIRE 896 -688 784 -688
WIRE -720 -672 -720 -688
WIRE -336 -656 -336 -688
WIRE -528 -608 -528 -688
WIRE -96 -608 -96 -688
WIRE 224 -608 224 -688
WIRE 544 -608 544 -688
WIRE -720 -560 -720 -592
WIRE -336 -560 -336 -576
WIRE -432 -496 -720 -496
WIRE -336 -496 -432 -496
WIRE -208 -496 -336 -496
WIRE -96 -496 -96 -512
WIRE -96 -496 -208 -496
WIRE 544 -496 544 -512
WIRE 544 -496 -96 -496
WIRE -1056 -464 -1056 -688
WIRE -432 -448 -432 -496
WIRE 896 -448 896 -688
WIRE 784 -432 784 -688
WIRE 224 -368 224 -512
WIRE -528 -336 -528 -544
WIRE -432 -336 -432 -368
WIRE -432 -336 -528 -336
WIRE 224 -336 224 -368
WIRE 224 -336 -432 -336
WIRE -96 -272 -96 -496
WIRE 224 -272 224 -336
WIRE 544 -272 544 -496
WIRE -96 -144 -96 -176
WIRE 224 -144 224 -176
WIRE 224 -144 -96 -144
WIRE 544 -144 544 -176
WIRE 544 -144 224 -144
WIRE 784 -144 784 -368
WIRE 896 -144 896 -368
WIRE 896 -144 784 -144
WIRE 544 -112 544 -144
WIRE 896 -112 896 -144
FLAG 544 -112 0
FLAG -768 -640 G1
FLAG -592 -640 G2
FLAG -400 -640 G3
FLAG -224 -640 G4
FLAG -144 -528 G5
FLAG 176 -528 G7
FLAG 496 -528 G9
FLAG -144 -192 G6
FLAG 176 -192 G8
FLAG 496 -192 G10
FLAG 896 -112 0
FLAG -1056 -384 0
FLAG -704 -688 SW1
FLAG -544 -688 SW2
FLAG -352 -688 SW3
FLAG -208 -496 SW4
FLAG 224 -368 SW5
FLAG 448 -688 OUT
FLAG -1552 -208 SW1
FLAG -1552 -144 SW2
FLAG -1552 0 SW3
FLAG -1552 64 OUT
FLAG -1552 -240 G1
FLAG -1552 -176 G2
FLAG -1552 -32 G3
FLAG -1552 32 G4
FLAG -1552 192 SW4
FLAG -1552 432 SW5
FLAG -1552 160 G5
FLAG -1552 224 G6
FLAG -1552 400 G7
FLAG -1552 336 G8
FLAG -1552 576 G10
FLAG -1552 512 G9
FLAG -1552 368 0
FLAG -1552 256 0
FLAG -1552 608 0
FLAG -1552 544 SW4
FLAG -2032 304 0
FLAG -2032 224 D
FLAG -1648 -192 D
FLAG -1648 16 D
FLAG -1648 208 D
FLAG -1648 384 D
FLAG -1648 560 D
FLAG -976 -688 IN
SYMBOL nmos -848 -640 R270
SYMATTR InstName M1
SYMATTR Value PSMN1R440YLD
SYMBOL nmos -144 -608 R0
SYMATTR InstName M5
SYMATTR Value AON6358
SYMBOL cap -736 -560 R0
SYMATTR InstName C1
SYMATTR Value 10µ
SYMBOL cap -544 -608 R0
SYMATTR InstName C2
SYMATTR Value 10µ
SYMBOL cap -352 -560 R0
SYMATTR InstName C3
SYMATTR Value 10µ
SYMBOL ind -736 -688 R0
SYMATTR InstName L1
SYMATTR Value 50n
SYMBOL ind -352 -672 R0
SYMATTR InstName L2
SYMATTR Value 50n
SYMBOL ind -448 -464 R0
SYMATTR InstName L3
SYMATTR Value 400n
SYMBOL cap 768 -432 R0
SYMATTR InstName C4
SYMATTR Value 100µ
SYMBOL res 880 -464 R0
SYMATTR InstName R1
SYMATTR Value 0.5
SYMBOL voltage -1056 -480 R0
WINDOW 123 0 0 Left 0
WINDOW 39 0 0 Left 0
SYMATTR InstName V1
SYMATTR Value 48
SYMBOL hbdrv -1600 -208 R0
SYMATTR InstName X1
SYMATTR Value tdelay=50n
SYMBOL hbdrv -1600 0 R0
SYMATTR InstName X2
SYMBOL hbdrv -1600 192 R0
SYMATTR InstName X3
SYMBOL hbdrv -1600 368 R0
SYMATTR InstName X4
SYMBOL hbdrv -1600 544 R0
SYMATTR InstName X5
SYMBOL voltage -2032 208 R0
WINDOW 123 0 0 Left 0
WINDOW 39 0 0 Left 0
SYMATTR InstName V2
SYMATTR Value PULSE(0 10 0 10n 10n 1u 2u)
SYMBOL nmos -144 -272 R0
SYMATTR InstName M6
SYMATTR Value AON6358
SYMBOL nmos 176 -608 R0
SYMATTR InstName M7
SYMATTR Value AON6358
SYMBOL nmos 176 -272 R0
SYMATTR InstName M8
SYMATTR Value AON6358
SYMBOL nmos 496 -608 R0
SYMATTR InstName M9
SYMATTR Value AON6358
SYMBOL nmos 496 -272 R0
SYMATTR InstName M10
SYMATTR Value AON6358
SYMBOL nmos -672 -640 R270
SYMATTR InstName M2
SYMATTR Value PSMN1R440YLD
SYMBOL nmos -480 -640 R270
SYMATTR InstName M3
SYMATTR Value PSMN1R440YLD
SYMBOL nmos -304 -640 R270
SYMATTR InstName M4
SYMATTR Value PSMN1R440YLD
TEXT -2066 638 Left 2 !.tran 1.2m
TEXT 1280 -808 Left 2 !.meas tran p1 avg (v(in)-v(sw1))*Id(M1)
TEXT 1280 -784 Left 2 !.meas tran p2 avg (v(sw1)-v(sw2))*Id(M2)
TEXT 1280 -760 Left 2 !.meas tran p3 avg (v(sw2)-v(sw3))*Id(M3)
TEXT 1280 -736 Left 2 !.meas tran p4 avg (v(sw3)-v(out))*Id(M4)
TEXT 1280 -712 Left 2 !.meas tran p5 avg (v(out)-v(sw4))*Id(M5)
TEXT 1280 -688 Left 2 !.meas tran p6 avg (v(sw4))*Id(M6)
TEXT 1280 -664 Left 2 !.meas tran p7 avg (v(out)-v(sw5))*Id(M7)
TEXT 1280 -640 Left 2 !.meas tran p8 avg (v(sw5))*Id(M8)
TEXT 1280 -616 Left 2 !.meas tran p9 avg (v(out)-v(sw4))*Id(M9)
TEXT 1280 -592 Left 2 !.meas tran p10 avg (v(sw4))*Id(M10)
