Version 4
SHEET 1 1828 844
WIRE -976 -688 -1056 -688
WIRE -848 -688 -976 -688
WIRE -720 -688 -752 -688
WIRE -704 -688 -720 -688
WIRE -672 -688 -704 -688
WIRE -544 -688 -576 -688
WIRE -528 -688 -544 -688
WIRE -480 -688 -528 -688
WIRE -352 -688 -384 -688
WIRE -336 -688 -352 -688
WIRE -304 -688 -336 -688
WIRE -96 -688 -208 -688
WIRE 224 -688 -96 -688
WIRE 448 -688 224 -688
WIRE 528 -688 448 -688
WIRE 640 -688 528 -688
WIRE 784 -688 640 -688
WIRE 896 -688 784 -688
WIRE -720 -672 -720 -688
WIRE -336 -656 -336 -688
WIRE -528 -608 -528 -688
WIRE -96 -608 -96 -688
WIRE 224 -608 224 -688
WIRE -720 -560 -720 -592
WIRE -336 -560 -336 -576
WIRE 528 -512 528 -688
WIRE -432 -496 -720 -496
WIRE -336 -496 -432 -496
WIRE -208 -496 -336 -496
WIRE -96 -496 -96 -512
WIRE -96 -496 -208 -496
WIRE 640 -496 640 -688
WIRE -1056 -464 -1056 -688
WIRE -432 -448 -432 -496
WIRE 896 -448 896 -688
WIRE 784 -432 784 -688
WIRE 224 -368 224 -512
WIRE -528 -336 -528 -544
WIRE -432 -336 -432 -368
WIRE -432 -336 -528 -336
WIRE 224 -336 224 -368
WIRE 224 -336 -432 -336
WIRE -2080 -320 -2416 -320
WIRE -96 -272 -96 -496
WIRE 224 -272 224 -336
WIRE -896 -208 -928 -208
WIRE -848 -208 -896 -208
WIRE -2416 -176 -2416 -320
WIRE -2368 -176 -2416 -176
WIRE -2000 -176 -2144 -176
WIRE -1936 -176 -2000 -176
WIRE -96 -144 -96 -176
WIRE 224 -144 224 -176
WIRE 224 -144 -96 -144
WIRE 528 -144 528 -448
WIRE 528 -144 224 -144
WIRE 544 -144 528 -144
WIRE 640 -144 640 -432
WIRE 640 -144 544 -144
WIRE 784 -144 784 -368
WIRE 784 -144 640 -144
WIRE 896 -144 896 -368
WIRE 896 -144 784 -144
WIRE -896 -128 -928 -128
WIRE -848 -128 -896 -128
WIRE -2416 -112 -2432 -112
WIRE -2368 -112 -2416 -112
WIRE -2080 -112 -2080 -320
WIRE -2080 -112 -2144 -112
WIRE -1216 -112 -1312 -112
WIRE -1200 -112 -1216 -112
WIRE -1056 -112 -1120 -112
WIRE 544 -112 544 -144
WIRE 896 -112 896 -144
WIRE -1056 -32 -1104 -32
WIRE -896 -16 -928 -16
WIRE -848 -16 -896 -16
WIRE -2432 48 -2432 -112
WIRE -2304 48 -2432 48
WIRE -2080 48 -2080 -112
WIRE -2080 48 -2224 48
WIRE -2080 64 -2080 48
WIRE -1248 64 -1312 64
WIRE -1104 64 -1104 -32
WIRE -1104 64 -1248 64
WIRE -896 64 -928 64
WIRE -848 64 -896 64
WIRE -896 240 -944 240
WIRE -864 240 -896 240
WIRE -896 320 -944 320
WIRE -864 320 -896 320
WIRE -1216 336 -1216 -112
WIRE -1200 336 -1216 336
WIRE -1072 336 -1120 336
WIRE -1248 416 -1248 64
WIRE -1072 416 -1248 416
WIRE -912 432 -944 432
WIRE -864 432 -912 432
WIRE -912 512 -944 512
WIRE -864 512 -912 512
FLAG 544 -112 0
FLAG -768 -640 G1
FLAG -592 -640 G2
FLAG -400 -640 G3
FLAG -224 -640 G4
FLAG -144 -528 G5
FLAG 176 -528 G7
FLAG -144 -192 G6
FLAG 176 -192 G8
FLAG 896 -112 0
FLAG -1056 -384 0
FLAG -704 -688 SW1
FLAG -544 -688 SW2
FLAG -352 -688 SW3
FLAG -208 -496 SW4
FLAG 224 -368 SW5
FLAG 448 -688 OUT
FLAG -896 -128 SW1
FLAG -912 432 OUT
FLAG -912 512 G4
FLAG -1648 128 SW4
FLAG -1648 304 SW5
FLAG -1648 96 G5
FLAG -1648 160 G6
FLAG -1648 272 G7
FLAG -1648 336 G8
FLAG -1648 368 0
FLAG -1648 192 0
FLAG -1936 -160 0
FLAG -2416 -112 D
FLAG -1744 144 D
FLAG -1744 320 DN
FLAG -976 -688 IN
FLAG -2368 -240 0
FLAG -2272 -368 0
FLAG -2272 -448 VCC
FLAG -2144 -240 VCC
FLAG -2368 -48 VCC
FLAG -2080 128 0
FLAG -2000 -256 VCC
FLAG -1872 -176 DN
FLAG -896 -208 G1
FLAG -896 64 G2
FLAG -896 -16 SW2
FLAG -1952 -368 0
FLAG -1952 -448 VSS
FLAG -896 240 G3
FLAG -896 320 SW3
FLAG -1312 -80 0
FLAG -1312 96 0
FLAG -1312 -144 VCC
FLAG -1312 32 VCC
FLAG -1424 -112 DN
FLAG -1424 64 D
SYMBOL nmos -848 -640 R270
SYMATTR InstName M1
SYMATTR Value AONR62818
SYMBOL nmos -144 -608 R0
SYMATTR InstName M5
SYMATTR Value AON6358
SYMBOL cap -736 -560 R0
SYMATTR InstName C1
SYMATTR Value 10µ
SYMBOL cap -544 -608 R0
SYMATTR InstName C2
SYMATTR Value 10µ
SYMBOL cap -352 -560 R0
SYMATTR InstName C3
SYMATTR Value 10µ
SYMBOL ind -736 -688 R0
SYMATTR InstName L1
SYMATTR Value 22n
SYMBOL ind -352 -672 R0
SYMATTR InstName L2
SYMATTR Value 22n
SYMBOL ind -448 -464 R0
SYMATTR InstName L3
SYMATTR Value 470n
SYMBOL cap 768 -432 R0
SYMATTR InstName C4
SYMATTR Value 220µ
SYMATTR SpiceLine Rser=50m
SYMBOL res 880 -464 R0
SYMATTR InstName R1
SYMATTR Value 1
SYMBOL voltage -1056 -480 R0
WINDOW 123 0 0 Left 0
WINDOW 39 0 0 Left 0
SYMATTR InstName V1
SYMATTR Value 48
SYMBOL hbdrv -1696 128 R0
SYMATTR InstName X3
SYMATTR Value tdelay=100n
SYMBOL hbdrv -1696 304 R0
SYMATTR InstName X4
SYMATTR Value tdelay=100n
SYMBOL nmos -144 -272 R0
SYMATTR InstName M6
SYMATTR Value AON6358
SYMBOL nmos 176 -608 R0
SYMATTR InstName M7
SYMATTR Value AON6358
SYMBOL nmos 176 -272 R0
SYMATTR InstName M8
SYMATTR Value AON6358
SYMBOL nmos -672 -640 R270
SYMATTR InstName M2
SYMATTR Value AON6264E
SYMBOL nmos -480 -640 R270
SYMATTR InstName M3
SYMATTR Value AOD66406
SYMBOL nmos -304 -640 R270
SYMATTR InstName M4
SYMATTR Value AONS66406
SYMBOL Misc\\NE555 -2256 -144 R0
SYMATTR InstName U1
SYMBOL voltage -2272 -464 R0
WINDOW 123 0 0 Left 0
WINDOW 39 0 0 Left 0
SYMATTR InstName V3
SYMATTR Value 10
SYMBOL cap -2096 64 R0
SYMATTR InstName C5
SYMATTR Value 1200p
SYMBOL res -2208 32 R90
WINDOW 0 0 56 VBottom 2
WINDOW 3 32 56 VTop 2
SYMATTR InstName R2
SYMATTR Value 1k
SYMBOL res -2016 -272 R0
SYMATTR InstName R3
SYMATTR Value 3k
SYMBOL Digital\\inv -1936 -240 R0
WINDOW 3 8 60 Invisible 2
SYMATTR Value Vhigh=5
SYMATTR InstName A1
SYMATTR Value2 td=10n
SYMBOL ind2 -1072 -16 M180
WINDOW 0 36 80 Left 2
WINDOW 3 36 40 Left 2
SYMATTR InstName L4
SYMATTR Value 1.14m
SYMATTR Type ind
SYMBOL ind2 -912 -112 R180
WINDOW 0 36 80 Left 2
WINDOW 3 36 40 Left 2
SYMATTR InstName L5
SYMATTR Value 1.14m
SYMATTR Type ind
SYMATTR SpiceLine Rser=750m
SYMBOL res -864 -224 R0
SYMATTR InstName R4
SYMATTR Value 5k
SYMBOL res -1104 -128 R90
WINDOW 0 0 56 VBottom 2
WINDOW 3 32 56 VTop 2
SYMATTR InstName R6
SYMATTR Value 750m
SYMBOL voltage -1952 -464 R0
WINDOW 123 0 0 Left 0
WINDOW 39 0 0 Left 0
SYMATTR InstName V2
SYMATTR Value -10
SYMBOL ind2 -912 80 R180
WINDOW 0 36 80 Left 2
WINDOW 3 36 40 Left 2
SYMATTR InstName L6
SYMATTR Value 1.14m
SYMATTR Type ind
SYMATTR SpiceLine Rser=750m
SYMBOL res -864 -32 R0
SYMATTR InstName R5
SYMATTR Value 5k
SYMBOL HBDRV2 -1376 -112 R0
SYMATTR InstName X5
SYMATTR Value tdelay=50n
SYMBOL HBDRV2 -1376 64 R0
SYMATTR InstName X6
SYMATTR Value tdelay=50n
SYMBOL ind2 -1088 432 M180
WINDOW 0 36 80 Left 2
WINDOW 3 36 40 Left 2
SYMATTR InstName L7
SYMATTR Value 1.14m
SYMATTR Type ind
SYMBOL ind2 -928 336 R180
WINDOW 0 36 80 Left 2
WINDOW 3 36 40 Left 2
SYMATTR InstName L8
SYMATTR Value 1.14m
SYMATTR Type ind
SYMATTR SpiceLine Rser=750m
SYMBOL res -880 224 R0
SYMATTR InstName R7
SYMATTR Value 5k
SYMBOL ind2 -928 528 R180
WINDOW 0 36 80 Left 2
WINDOW 3 36 40 Left 2
SYMATTR InstName L9
SYMATTR Value 1.14m
SYMATTR Type ind
SYMATTR SpiceLine Rser=750m
SYMBOL res -880 416 R0
SYMATTR InstName R8
SYMATTR Value 5k
SYMBOL res -1104 320 R90
WINDOW 0 0 56 VBottom 2
WINDOW 3 32 56 VTop 2
SYMATTR InstName R9
SYMATTR Value 750m
SYMBOL cap 512 -512 R0
SYMATTR InstName C6
SYMATTR Value 10µ
SYMATTR SpiceLine Rser=5m
SYMBOL cap 624 -496 R0
SYMATTR InstName C7
SYMATTR Value 10µ
SYMATTR SpiceLine Rser=5m
TEXT -2064 640 Left 2 !.tran 0 1m 0.75m startup
TEXT 1280 -808 Left 2 !.meas tran p1 avg (v(in)-v(sw1))*Id(M1)
TEXT 1280 -784 Left 2 !.meas tran p2 avg (v(sw1)-v(sw2))*Id(M2)
TEXT 1280 -760 Left 2 !.meas tran p3 avg (v(sw2)-v(sw3))*Id(M3)
TEXT 1280 -736 Left 2 !.meas tran p4 avg (v(sw3)-v(out))*Id(M4)
TEXT 1280 -712 Left 2 !.meas tran p5 avg (v(out)-v(sw4))*Id(M5)
TEXT 1280 -688 Left 2 !.meas tran p6 avg (v(sw4))*Id(M6)
TEXT 1280 -664 Left 2 !.meas tran p7 avg (v(out)-v(sw5))*Id(M7)
TEXT 1280 -640 Left 2 !.meas tran p8 avg (v(sw5))*Id(M8)
TEXT 1280 -616 Left 2 !*.meas tran p9 avg (v(out)-v(sw4))*Id(M9)
TEXT 1280 -592 Left 2 !*.meas tran p10 avg (v(sw4))*Id(M10)
TEXT -1120 -240 Left 2 !K1 L4 L5 L6 1
TEXT 1280 -496 Left 2 !.meas tran pin avg V(IN)*I(V1)
TEXT 1280 -472 Left 2 !.meas tran pout avg V(OUT)*I(R1)
TEXT -1136 208 Left 2 !K2 L7 L8 L9 1
TEXT 1280 -528 Left 2 !.meas tran pfet avg p1+p2+p3+p4+p5+p6+p7+p8
TEXT 1280 -448 Left 2 !.meas tran pino avg abs(pin)-abs(pout)
