Version 4
SHEET 1 2228 1284
WIRE 144 -448 -96 -448
WIRE 496 -448 272 -448
WIRE 656 -448 496 -448
WIRE 496 -432 496 -448
WIRE 656 -432 656 -448
WIRE -96 -384 -96 -448
WIRE 336 -336 272 -336
WIRE 336 -304 336 -336
WIRE 336 -304 272 -304
FLAG -96 -304 0
FLAG 496 -352 0
FLAG 656 -352 0
SYMBOL voltage -96 -400 R0
WINDOW 123 0 0 Left 0
WINDOW 39 0 0 Left 0
SYMATTR InstName V2
SYMATTR Value 52
SYMBOL res 480 -448 R0
SYMATTR InstName Rout
SYMATTR Value 0.2
SYMBOL current 656 -432 R0
WINDOW 123 0 0 Left 0
WINDOW 39 0 0 Left 0
SYMATTR InstName I1
SYMATTR Value PULSE(0 100 {t0+5m} 1u 1u 1 100)
SYMBOL PSUx 208 -400 R0
SYMATTR InstName X1
TEXT 528 -136 Left 2 !.tran 0 {t0+t0} 0 startup
TEXT 528 -168 Left 2 !.param t0=20m
TEXT 432 -616 Left 2 ;hoang pham\n2022
