Version 4
SHEET 1 2228 680
WIRE -48 -160 -96 -160
WIRE 240 -160 80 -160
WIRE 240 -144 240 -160
WIRE 112 -112 80 -112
WIRE 112 -80 80 -80
WIRE 112 -48 80 -48
WIRE 112 -16 112 -48
WIRE 112 -16 80 -16
FLAG -288 -48 0
FLAG -288 -128 IN
FLAG 112 128 B
FLAG -96 -160 IN
FLAG 240 -64 0
FLAG 192 128 A
FLAG -288 64 0
FLAG 112 -112 A
FLAG 112 -80 B
SYMBOL voltage -288 -144 R0
WINDOW 123 0 0 Left 0
WINDOW 39 0 0 Left 0
SYMATTR InstName V2
SYMATTR Value 52
SYMBOL voltage 208 128 R90
WINDOW 0 -32 56 VBottom 2
WINDOW 3 45 36 VTop 2
WINDOW 123 0 0 Left 0
WINDOW 39 0 0 Left 0
SYMATTR InstName V3
SYMATTR Value SINE(0 50m {Freq} {t0})
SYMBOL res 224 -160 R0
SYMATTR InstName R1
SYMATTR Value 0.2
SYMBOL PSUx 16 -112 R0
SYMATTR InstName X1
TEXT 656 -200 Left 2 !**********************************************\n***Loopgain calculation*******************\n**********************************************\n.meas Aavg avg V(a)\n.meas Bavg avg V(b)\n.meas Are avg (V(a)-Aavg)*cos(360*time*Freq)\n.meas Aim avg -(V(a)-Aavg)*sin(360*time*Freq)\n.meas Bre avg (V(b)-Bavg)*cos(360*time*Freq)\n.meas Bim avg -(V(b)-Bavg)*sin(360*time*Freq)\n.meas GainMag param 20*log10(hypot(Are,Aim)/hypot(Bre,Bim))\n.meas GainPhi param mod(atan2(Aim,Are)-atan2(Bim,Bre)+180,360)-180
TEXT 656 200 Left 2 !.param freq=500
TEXT 656 232 Left 2 !.step oct param freq 100 5k 10
TEXT 656 264 Left 2 !.tran 0 {t0+10/freq} {t0} startup
TEXT 656 168 Left 2 !*.step param G0 list 10 20
TEXT 656 136 Left 2 !.param t0=10m
TEXT 656 -240 Left 3 ;hoang pham 2022
