Version 4
SHEET 1 2228 1284
WIRE 144 -448 -96 -448
WIRE 496 -448 272 -448
WIRE 496 -432 496 -448
WIRE -96 -384 -96 -448
WIRE 144 -352 96 -352
WIRE 416 -336 272 -336
WIRE 336 -304 272 -304
WIRE 416 -272 416 -336
FLAG -96 -304 0
FLAG 496 -352 0
FLAG 416 -192 0
SYMBOL voltage -96 -400 R0
WINDOW 123 0 0 Left 0
WINDOW 39 0 0 Left 0
SYMATTR InstName V2
SYMATTR Value 52
SYMBOL res 480 -448 R0
SYMATTR InstName Rout
SYMATTR Value 0.075
SYMBOL PSUx 208 -400 R0
SYMATTR InstName X1
SYMBOL voltage 416 -288 R0
WINDOW 123 0 0 Left 0
WINDOW 39 0 0 Left 0
SYMATTR InstName V1
SYMATTR Value PULSE(0 4 0 10m 10m 10 10)
TEXT 616 -400 Left 2 !.tran 0 {t0+t0} 0 startup
TEXT 616 -432 Left 2 !.param t0=50m
TEXT 432 -616 Left 2 ;hoangpham\n2022
