Version 4
SHEET 1 2228 680
WIRE -48 -160 -96 -160
WIRE 240 -160 80 -160
WIRE 240 -144 240 -160
WIRE 112 -112 80 -112
WIRE 112 -80 80 -80
WIRE -48 -64 -96 -64
WIRE 128 -48 80 -48
WIRE -48 -32 -96 -32
WIRE 128 -16 80 -16
FLAG -288 -48 0
FLAG -288 -128 IN
FLAG -96 -160 IN
FLAG 240 -64 0
FLAG 0 144 0
FLAG 112 -112 A
FLAG 112 -80 B
FLAG 192 128 AI
FLAG 112 128 BI
FLAG 160 400 0
FLAG 128 -48 12VLS
FLAG 160 320 12VLS
FLAG -96 -64 AI
FLAG -96 -32 BI
SYMBOL voltage -288 -144 R0
WINDOW 123 0 0 Left 0
WINDOW 39 0 0 Left 0
SYMATTR InstName V2
SYMATTR Value 52
SYMBOL voltage 208 128 R90
WINDOW 0 -32 56 VBottom 2
WINDOW 3 45 36 VTop 2
WINDOW 123 0 0 Left 0
WINDOW 39 0 0 Left 0
SYMATTR InstName V3
SYMATTR Value SINE(0 50m {Freq} {t0})
SYMBOL res 224 -160 R0
SYMATTR InstName R1
SYMATTR Value 0.075
SYMBOL PSUx 16 -112 R0
SYMATTR InstName X1
SYMBOL voltage 160 304 R0
WINDOW 123 0 0 Left 0
WINDOW 39 0 0 Left 0
SYMATTR InstName V1
SYMATTR Value PULSE(0 4 0 10m 10m 10 10)
TEXT 656 -200 Left 2 !**********************************************\n***Loopgain calculation*******************\n**********************************************\n.meas Aavg avg V(ai)\n.meas Bavg avg V(bi)\n.meas Are avg (V(ai)-Aavg)*cos(360*time*Freq)\n.meas Aim avg -(V(ai)-Aavg)*sin(360*time*Freq)\n.meas Bre avg (V(bi)-Bavg)*cos(360*time*Freq)\n.meas Bim avg -(V(bi)-Bavg)*sin(360*time*Freq)\n.meas GainMag param 20*log10(hypot(Are,Aim)/hypot(Bre,Bim))\n.meas GainPhi param mod(atan2(Aim,Are)-atan2(Bim,Bre)+180,360)-180
TEXT 656 200 Left 2 !.param freq=500
TEXT 656 232 Left 2 !.step oct param freq 20 1k 10
TEXT 656 264 Left 2 !.tran 0 {t0+10/freq} {t0} startup
TEXT 656 168 Left 2 !*.step param G0 list 10 20
TEXT 656 136 Left 2 !.param t0=50m
TEXT 664 -272 Left 3 ;hoangpham\n2022
